%NProcShared=4
%Mem=4GB
#P B3LYP/6-31G* Opt Freq

Title

0 1
9

C     -0.888311    0.167003   -0.027316
C      0.465753   -0.511559   -0.036795
O      1.431075    0.322916    0.586670
H     -0.848741    1.117480   -0.569524
H     -1.647121   -0.470443   -0.489637
H     -1.196397    0.397845    0.997723
H      0.791997   -0.722428   -1.059726
H      0.424604   -1.455862    0.513791
H      1.467142    1.155048    0.084814

